/*--------------------------------*- C++ -*----------------------------------*\
| =========                 |                                                 |
| \\      /  F ield         | OpenFOAM: The Open Source CFD Toolbox           |
|  \\    /   O peration     | Version:  5.x                                   |
|   \\  /    A nd           | Web:      www.OpenFOAM.org                      |
|    \\/     M anipulation  |                                                 |
\*---------------------------------------------------------------------------*/
FoamFile
{
    version     2.0;
    format      ascii;
    class       polyBoundaryMesh;
    location    "0.063/polyMesh";
    object      boundary;
}
// * * * * * * * * * * * * * * * * * * * * * * * * * * * * * * * * * * * * * //

5
(
    inlet
    {
        type            wall;
        inGroups        1(wall);
        nFaces          25;
        startFace       4444;
    }
    wall
    {
        type            wall;
        inGroups        1(wall);
        nFaces          400;
        startFace       4469;
    }
    outlet
    {
        type            wall;
        inGroups        1(wall);
        nFaces          25;
        startFace       4869;
    }
    procBoundary2to0
    {
        type            processor;
        inGroups        1(processor);
        nFaces          329;
        startFace       4894;
        matchTolerance  0.0001;
        transform       unknown;
        myProcNo        2;
        neighbProcNo    0;
    }
    procBoundary2to3
    {
        type            processor;
        inGroups        1(processor);
        nFaces          329;
        startFace       5223;
        matchTolerance  0.0001;
        transform       unknown;
        myProcNo        2;
        neighbProcNo    3;
    }
)

// ************************************************************************* //
